% oceanic compositions
% basalt - Hacker et al. [JGR, 2003]
5 0

11
4  17.85
5  42.05
11  1.89
12  0.21
14  3.08
15  5.28
16  0.44
17 15.70
18  4.90
23  5.59
24  3.01

0
11 30 280
3 0.1 0

% gabbro - Hacker et al. [JGR, 2003]
8
4 10.08
5 37.92
17 26.14
18  5.86
21  5.14
22  5.86
23  7.09
24  1.91

0
11 30 280
3 0.1 0

% plag-lherz - Niu et al. [EPSL, 1997]
7
5   0.71
17  3.82
18  0.41
21 17.49
22  1.94
23 68.43
24  7.20

0
26 50 350
4 0.25 0.25

% sp-lherz - Niu et al. [EPSL, 1997]
7
17  4.49
18  0.41
21 18.77
22  1.93
23 66.55
24  7.15
25  0.70

0
26 50 350
8 0.25 1.00

% gt-lherz - Niu et al. [EPSL, 1997]
9
17  4.49
18  0.41
21 17.32
22  1.78
23 67.00
24  7.20
28  1.19
29  0.43
30 0.18

0
26 50 350
 8 0.25 1.25
